68
fubar
Ag -0.8443 1.4624 -1.2292
Ag 0.8300 1.4376 -3.6542
Ag -0.8891 4.4513 -1.2701
Ag -2.5262 1.4194 1.1390
Ag -3.3153 2.8492 3.4824
Ag -3.3153 -2.8492 3.4824
Ag -2.4841 4.3026 1.1315
Ag -2.5262 -1.4194 1.1390
Ag -3.4534 0.0000 3.5288
Ag -2.4841 -4.3026 1.1315
Ag -0.8443 -1.4624 -1.2292
Ag 0.8300 -1.4376 -3.6542
Ag -0.8891 -4.4513 -1.2701
Ag 0.0000 0.0000 1.1887
Ag 1.6887 0.0000 -1.2292
Ag 0.0338 2.8974 1.1390
Ag 0.0338 -2.8974 1.1390
Ag 1.6801 2.9100 -1.2285
Ag -0.8268 1.4320 3.5362
Ag -0.8268 -1.4320 3.5362
Ag -0.8098 -4.2957 3.4824
Ag -0.8098 4.2957 3.4824
Ag 1.6801 -2.9100 -1.2285
Ag -3.3602 0.0000 -1.2285
Ag -1.6600 0.0000 -3.6542
Ag -5.1324 0.0000 1.1631
Ag -3.4104 2.9957 -1.2701
Ag -3.4104 -2.9957 -1.2701
Ag -1.6429 2.8456 -3.5436
Ag -4.9513 2.8291 1.1158
Ag -4.9513 -2.8291 1.1158
Ag -1.6429 -2.8456 -3.5436
Ag 2.4923 1.4780 1.1390
Ag 1.7267 -2.9907 3.5288
Ag 1.6535 0.0000 3.5362
Ag 2.4923 -1.4780 1.1390
Ag -4.1797 1.4299 -3.5244
Ag -5.8624 1.4290 -1.2163
Ag -5.8624 -1.4290 -1.2163
Ag -4.1797 -1.4299 -3.5244
Ag 4.2995 1.4557 -1.2701
Ag 4.2995 -1.4557 -1.2701
Ag 2.5662 4.4448 1.1631
Ag 1.7267 2.9907 3.5288
Ag 3.2858 0.0000 -3.5436
Ag 0.0255 5.7025 1.1158
Ag 4.1251 1.4466 3.4824
Ag 4.9682 0.0000 1.1315
Ag 4.9257 2.8734 1.1158
Ag 3.3282 2.9048 -3.5244
Ag 0.8516 4.3347 -3.5244
Ag 1.6937 5.7914 -1.2163
Ag 4.1687 4.3625 -1.2163
Ag 4.1251 -1.4466 3.4824
Ag 4.9257 -2.8734 1.1158
Ag 2.5662 -4.4448 1.1631
Ag 0.0255 -5.7025 1.1158
Ag 4.1687 -4.3625 -1.2163
Ag 0.8516 -4.3347 -3.5244
Ag 1.6937 -5.7914 -1.2163
Ag 3.3282 -2.9048 -3.5244
Ag 2.4428 1.4194 5.8513
Ag 2.4428 -1.4194 5.8513
Ag 0.0000 0.0000 6.3350
Ag 0.0078 -2.8253 5.8513
Ag 0.0078 2.8253 5.8513
Ag -2.4506 1.4059 5.8513
Ag -2.4506 -1.4059 5.8513
