70
from Mayer
C   -3.974530      0.1929000       4.723600
C   -3.974500       1.212220       3.702750
C   -3.225340       2.374790       3.886010
C   -2.451680       2.557450       5.086380
C   -2.451690       1.578500       6.066770
C   -3.225390      0.3778600       5.885900
C   -1.203590       1.226750       6.717690
C  -1.9999999E-05   1.921660       6.456300
C   0.0000000E+00   2.947440       5.428990
C   -1.203560       3.207820       4.733680
C    1.203540       1.226740       6.717710
C    2.451660       1.578480       6.066810
C    2.451680       2.557420       5.086420
C    1.203580       3.207810       4.733710
C    3.225340      0.3778400       5.885950
C    3.974510      0.1928600       4.723660
C    3.974530       1.212180       3.702820
C    3.225380       2.374760       3.886060
C    3.974530      0.5562800       2.417920
C    3.974520     -0.8684100       2.644660
C    3.974500      -1.093020       4.069690
C   -3.974530      -1.092970       4.069620
C   -3.974510     -0.8683500       2.644600
C   -3.974500      0.5563400       2.417870
C   -3.225370      -1.701200       1.813020
C   -2.451670      -1.143440      0.7345400
C   -1.203550      -1.876900      0.6376200
C   -1.203580      -2.876890       1.639090
C   -2.451700      -2.778850       2.372410
C   9.9999997E-06  -1.257580      0.2281599
C    1.203580      -1.876920      0.6376400
C    1.203570      -2.876910       1.639110
C  -9.9999997E-06  -3.285440       2.259040
C    2.451700      -1.143440      0.7345600
C    3.225370      -1.701230       1.813120
C    2.451680      -2.778880       2.372450
C    1.203590       3.428150       3.335720
C    2.451710       2.917790       2.800070
C   3.9999999E-05   3.394290       2.594040
C   -1.203540       3.428160       3.335700
C   -2.451650       2.917820       2.800030
C    1.203530     -0.1709000       6.940130
C    2.451650     -0.7073300       6.430580
C   -1.203600     -0.1709000       6.940120
C  -3.9999999E-05 -0.9126300       6.907550
C    3.225340      -2.141260       4.604770
C    2.451650      -1.942260       5.802530
C  -3.9999999E-05  -2.206640       6.249240
C    1.203530      -2.669990       5.669140
C   -2.451720     -0.7073100       6.430560
C   -3.225390      -2.141230       4.604720
C   -2.451720      -1.942240       5.802500
C   -2.451650       2.287920       1.566040
C   -3.225330       1.089850       1.368820
C    2.451720       2.287890       1.566080
C    3.225390       1.089820       1.368870
C   -2.451650      0.2248200      0.5167899
C    2.451710      0.2247900      0.5168300
C    2.451660      -2.994600       3.741010
C    1.203540      -3.313440       4.408630
C   2.9999999E-05  -3.511470       3.693080
C    1.203610      0.8919600      0.1969800
C   3.9999999E-05  0.1761200      0.0000000E+00
C   -1.203600      -2.669980       5.669120
C   -2.451710      -2.994570       3.740980
C   -1.203590      -3.313420       4.408610
C   -1.203530      0.8919700      0.1969600
C   3.9999999E-05   2.734240       1.301020
C   -1.203520       2.153440      0.8385201
C    1.203610       2.153420      0.8385398
